T42/data/state_estimation/ES_Dx_03_2050_W_Bd/ES_Dx_03_2050_W_Bd_t12.csv
bus,vm_pu,va_degree,p_mw,q_mvar
1,0.999900,-0.000501,117.944696,53.766218
7966,1.021237,-0.044501,-1.493202,-0.585124
7967,1.027739,-0.039662,-5.178425,-2.029090
7968,1.028081,-0.040220,-1.858370,-0.728318
7969,1.026745,-0.040313,-3.197238,-1.252892
7970,1.025563,-0.040513,-2.682342,-1.051056
7971,1.028272,-0.039718,-1.909970,-0.748379
7972,1.027582,-0.039579,-0.720831,-0.282422
7973,1.034144,-0.042133,-3.150429,-1.234495
7974,1.035335,-0.040961,-0.978315,-0.383340
7975,1.020450,-0.034441,-1.652473,-0.647450
7976,1.020859,-0.035622,-4.395651,-1.722325
7977,1.021276,-0.035561,-2.995937,-1.174011
7978,1.036759,-0.041923,-0.622548,-0.243989
7979,1.036253,-0.042778,-1.760045,-0.689742
7980,1.021081,-0.036268,-1.493384,-0.585106
7981,1.024043,-0.050925,-2.738568,-1.073014
7982,1.035719,-0.041073,-0.154488,-0.060472
7983,1.035196,-0.042866,-2.527857,-0.990519
7984,1.033698,-0.042534,-2.069078,-0.810714
7985,1.020061,-0.045735,-0.296397,-0.116171
7986,1.029427,-0.038681,-0.272138,-0.106653
7987,1.020255,-0.035554,-0.289579,-0.113470
7988,1.027089,-0.039795,-0.268704,-0.105324
7989,1.036121,-0.041487,-0.268372,-0.105152
7990,1.036189,-0.040663,-0.289563,-0.113503
7991,1.022367,-0.034669,-0.270466,-0.105911
7992,1.021705,-0.034538,-0.282822,-0.110796
7993,1.032713,-0.042780,-0.985706,-0.295686
7994,1.028176,-0.039235,-0.332972,-0.130399
7995,1.020459,-0.034298,-0.273322,-0.107155
7996,1.035354,-0.042071,-0.324564,-0.127232
7997,1.026525,-0.039798,-0.302236,-0.118464
7998,1.020100,-0.034250,-0.296512,-0.116276
7999,1.037207,-0.041748,-0.359461,-0.140789
8000,1.022714,-0.034700,-0.279299,-0.109480
8001,1.036562,-0.040854,-0.373722,-0.146381
8002,1.021845,-0.034812,-0.281376,-0.110254
8003,1.021315,-0.035057,-0.281329,-0.110197
8004,1.020115,-0.034735,-0.278779,-0.109168
8005,1.034810,-0.042597,-0.284426,-0.111490
8006,1.019248,-0.035087,-0.385698,-0.151147
8007,1.033952,-0.041684,-0.279330,-0.109496
8395,1.022897,-0.049543,-0.239628,-0.104017
8396,1.022513,-0.049840,-0.243483,-0.105968
8397,1.022889,-0.050386,-0.131110,-0.055761
8398,1.024203,-0.050937,-0.154221,-0.066913
8399,1.023521,-0.050559,-0.091502,-0.039323
8400,1.034642,-0.042029,-0.071024,-0.029934
8401,1.034373,-0.042635,-0.370496,-0.160640
8402,1.034771,-0.042965,-0.283170,-0.120246
8403,1.023035,-0.051196,-0.162192,-0.068171
8404,1.019878,-0.034375,-0.088202,-0.037722
8405,1.018636,-0.034509,-0.197407,-0.084591
8406,1.019104,-0.035651,-0.057304,-0.023753
8407,1.023350,-0.050637,-0.270523,-0.114315
8408,1.019171,-0.034020,-0.191140,-0.081162
8409,1.018800,-0.034658,-0.037593,-0.015239
8410,1.019843,-0.034904,-0.141573,-0.060912
8411,1.023664,-0.050041,-0.103389,-0.043557
8412,1.033954,-0.041969,-0.274524,-0.116061
8413,1.024663,-0.051442,-0.152555,-0.065769
8414,1.020613,-0.034599,-0.069137,-0.029058
8415,1.024656,-0.050043,-0.131602,-0.056204
8416,1.024410,-0.050801,-0.160730,-0.067468
8417,1.020234,-0.034870,-0.136927,-0.058706
8418,1.018521,-0.035400,-0.267558,-0.113374
8419,1.024498,-0.050390,-0.166785,-0.070259
8420,1.025342,-0.050556,-0.095722,-0.041420
8421,1.019672,-0.034974,-0.151871,-0.065667
8422,1.020200,-0.035174,-0.156481,-0.068039
8423,1.019196,-0.034327,-0.245921,-0.106853
8424,1.034402,-0.041889,-0.374476,-0.162057
8425,1.032903,-0.043207,-0.093010,-0.040295
8426,1.034849,-0.041625,-0.219091,-0.094369
8427,1.034658,-0.041715,-0.069024,-0.029147
8428,1.024074,-0.050526,-0.048414,-0.019940
8429,1.025413,-0.050914,-0.368185,-0.158297
8430,1.019745,-0.035111,-0.098754,-0.042814
8431,1.020766,-0.034612,-0.208707,-0.090764
8432,1.032447,-0.041414,-0.273097,-0.115549
8433,1.032666,-0.041620,-0.274785,-0.116415
8434,1.036281,-0.042797,-0.173025,-0.072945
8435,1.018666,-0.035423,-0.262024,-0.110687
8436,1.021050,-0.035616,-0.099805,-0.041536
8437,1.020951,-0.034978,-0.204927,-0.087498
8438,1.031399,-0.041653,-0.061712,-0.025854
8439,1.021444,-0.035390,-0.064268,-0.026969
8440,1.033237,-0.041298,-0.348128,-0.150495
8441,1.034522,-0.041337,-0.853884,-0.281643
8442,1.034929,-0.041879,-0.070635,-0.029645
8443,1.034853,-0.041560,-0.070390,-0.029510
8444,1.033614,-0.041516,-0.316136,-0.135129
8445,1.024454,-0.050063,-0.077512,-0.032854
8446,1.034181,-0.041555,-0.190819,-0.081116
8447,1.033789,-0.041554,-0.257804,-0.109367
8448,1.034433,-0.042568,-0.079380,-0.033777
8449,1.034980,-0.042005,-0.179529,-0.075809
8450,1.037658,-0.041168,-0.000015,-0.000053
8451,1.035630,-0.041939,-0.084014,-0.036054
8452,1.035167,-0.041861,-0.235852,-0.102079
8453,1.020313,-0.035467,-0.163588,-0.068766
8454,1.036220,-0.040347,-0.143564,-0.062213
8455,1.035125,-0.041642,-0.158988,-0.066649
8456,1.025620,-0.050635,-0.111888,-0.047026
8457,1.024836,-0.050751,-0.010251,-0.004069
8458,1.020809,-0.035686,-0.120682,-0.051289
8459,1.035358,-0.041015,-0.098351,-0.042715
8460,1.019593,-0.034766,-0.097529,-0.042173
8461,1.021366,-0.035129,-0.037324,-0.015192
8462,1.021624,-0.034734,-0.200895,-0.085739
8463,1.034303,-0.041481,-0.683990,-0.225784
8464,1.034133,-0.040914,-0.213524,-0.091670
8465,1.034295,-0.042449,-0.255866,-0.107473
8466,1.034268,-0.041602,-0.381921,-0.165830
8467,1.035226,-0.041701,-0.016935,-0.006708
8468,1.020661,-0.034801,-0.129766,-0.055509
8469,1.021552,-0.035022,-0.269271,-0.114172
8470,1.035086,-0.041477,-0.194864,-0.082986
8471,1.035838,-0.042301,-0.285923,-0.120912
8472,1.034316,-0.041325,-0.254743,-0.106916
8473,1.022231,-0.034321,-0.137683,-0.058801
8474,1.020826,-0.034233,-0.101900,-0.042759
8475,1.036302,-0.041909,-0.174241,-0.073538
8476,1.020285,-0.035435,-0.035112,-0.014338
8477,1.020815,-0.034964,-0.183298,-0.078611
8478,1.035312,-0.041902,-0.156636,-0.067728
8479,1.034635,-0.041265,-0.073120,-0.030809
8480,1.020467,-0.034852,-0.088977,-0.038163
8481,1.021414,-0.034653,-0.251387,-0.109194
8482,1.021134,-0.034162,-0.225998,-0.097186
8483,1.019881,-0.034553,-0.319342,-0.136718
8484,1.034554,-0.041982,-0.213486,-0.092462
8485,1.020606,-0.035098,-0.094748,-0.040959
8486,1.022786,-0.034752,-0.000082,0.000025
8487,1.036795,-0.040818,-0.329542,-0.141142
8488,1.036412,-0.040801,-0.099280,-0.041488
8489,1.020650,-0.034726,-0.062819,-0.026263
8490,1.020787,-0.034832,-0.080382,-0.034286
8491,1.020920,-0.034045,-0.192211,-0.081880
8492,1.021046,-0.034569,-0.153261,-0.066386
8493,1.035112,-0.041774,-0.210843,-0.090354
8494,1.036329,-0.041093,-0.052699,-0.021814
8495,1.036514,-0.041209,-0.153853,-0.066593
8496,1.035321,-0.042081,-0.088568,-0.037984
8497,1.035933,-0.041231,-0.287044,-0.122360
8498,1.021488,-0.035173,-0.337719,-0.145100
8499,1.035959,-0.041923,-0.150788,-0.065173
8500,1.035417,-0.042084,-0.383198,-0.166423
8501,1.036123,-0.041225,-0.097496,-0.042100
8502,1.035693,-0.041243,-0.173998,-0.073034
8503,1.022772,-0.034035,-0.353397,-0.152386
8504,1.035707,-0.041207,-0.078258,-0.033122
8505,1.034985,-0.041352,-0.152276,-0.065842
8506,1.037048,-0.041120,-0.334313,-0.143933
8507,1.036278,-0.040258,-0.081012,-0.034496
8508,1.020540,-0.035117,-0.098437,-0.042564
8509,1.022470,-0.035086,-0.092413,-0.039743
8510,1.036390,-0.041272,-0.090881,-0.039028
8511,1.020645,-0.034570,-0.242825,-0.105461
8512,1.036175,-0.041706,-0.229563,-0.099488
8513,1.037094,-0.041792,-0.338468,-0.145474
8514,1.036823,-0.042008,-0.220985,-0.095280
8515,1.036690,-0.041448,-0.273601,-0.115541
8516,1.022508,-0.034543,-0.114492,-0.048363
8517,1.036386,-0.040965,-0.324480,-0.139021
8518,1.036859,-0.040719,-0.106197,-0.044711
8519,1.021041,-0.034871,-0.323838,-0.138446
8520,1.036834,-0.041127,-0.133625,-0.057163
8521,1.022453,-0.034136,-0.337036,-0.144797
8522,1.022001,-0.034874,-0.144470,-0.062026
8523,1.021355,-0.035303,-0.228394,-0.098525
8524,1.022502,-0.034164,-0.235034,-0.101786
8525,1.022433,-0.034944,-0.063152,-0.026426
8526,1.022865,-0.035589,-0.196066,-0.083786
8527,1.036662,-0.041682,-0.099453,-0.041409
8528,1.021096,-0.034095,-0.050185,-0.020621
8529,1.021599,-0.035608,-0.083675,-0.035736
8530,1.036479,-0.041076,-0.300177,-0.127392
8531,1.037671,-0.041297,-0.094785,-0.040754
8532,1.022548,-0.034036,-0.087197,-0.037498
8533,1.036281,-0.041977,-0.022509,-0.009024
8534,1.022536,-0.034165,-0.223670,-0.096472
8535,1.036899,-0.041973,-0.081874,-0.034876
8536,1.036046,-0.041738,-0.060019,-0.024861
8537,1.022292,-0.034935,-0.095038,-0.041003
8538,1.021440,-0.034669,-0.094745,-0.040867
8539,1.034394,-0.040894,-0.374026,-0.162529
8540,1.034331,-0.041189,-0.127506,-0.054300
8541,1.035582,-0.041227,-0.197779,-0.084189
8542,1.036926,-0.041331,-0.148927,-0.064394
8543,1.021590,-0.034276,-0.192272,-0.082012
8544,1.021469,-0.034627,-0.248328,-0.108146
8545,1.033760,-0.041470,-0.171326,-0.072006
8546,1.022293,-0.034903,-0.359327,-0.155798
8547,1.022406,-0.034983,-0.194885,-0.082840
8548,1.022215,-0.034688,-0.284587,-0.120495
8549,1.033822,-0.041259,-0.190801,-0.080970
8550,1.033976,-0.041210,-0.194277,-0.083032
8551,1.020839,-0.034613,-0.044941,-0.018378
8552,1.034142,-0.040169,-0.056323,-0.023497
8553,1.036775,-0.042157,-0.109774,-0.046276
8554,1.035319,-0.041183,-0.063854,-0.026826
8555,1.036641,-0.041033,-0.234604,-0.101427
8556,1.035726,-0.041002,-0.083542,-0.035604
8557,1.021326,-0.034165,-0.174690,-0.073821
8558,1.035981,-0.040263,-0.234089,-0.101217
8559,1.036261,-0.040357,-0.053200,-0.021919
8560,1.033818,-0.040640,-0.208917,-0.089458
8561,1.019995,-0.034772,-0.086747,-0.037191
8562,1.020488,-0.034306,-0.146838,-0.063476
8563,1.034904,-0.042112,-0.181421,-0.076643
8564,1.032684,-0.040631,-0.070974,-0.029981
8565,1.036107,-0.041143,-0.212527,-0.090892
8566,1.021049,-0.034824,-0.135262,-0.057991
8567,1.038034,-0.041008,-0.317242,-0.135380
8568,1.036772,-0.041055,-0.227491,-0.098059
8569,1.036110,-0.040952,-0.195194,-0.083248
8570,1.021173,-0.035212,-0.197925,-0.084664
8571,1.021970,-0.034631,-0.222654,-0.095522
8572,1.020701,-0.034349,-0.110934,-0.046616
8573,1.036977,-0.041105,-0.131407,-0.056023
8574,1.020377,-0.034812,-0.325988,-0.140014
8575,1.036337,-0.041288,-0.200309,-0.085366
8576,1.021893,-0.034569,-0.097540,-0.042159
8577,1.037279,-0.042071,-0.144283,-0.062203
8578,1.019727,-0.033789,-0.031038,-0.012566
8579,1.036275,-0.041424,-0.201673,-0.087257
8580,1.036922,-0.041576,-0.073484,-0.031099
8581,1.020562,-0.034213,-0.075625,-0.031895
8582,1.036050,-0.040876,-0.157815,-0.068461
8583,1.035844,-0.041867,-0.034114,-0.013774
8584,1.020239,-0.034803,-0.211753,-0.090933
8585,1.034773,-0.040554,-0.228642,-0.098654
8586,1.035618,-0.042142,-0.071245,-0.030167
8587,1.021454,-0.035299,-0.215245,-0.092574
8588,1.035674,-0.042229,-0.360282,-0.155850
8589,1.020937,-0.035203,-0.102346,-0.043043
8590,1.021151,-0.035204,-0.060991,-0.025388
8591,1.036166,-0.041236,-0.237785,-0.103044
8592,1.035967,-0.041166,-0.248527,-0.108369
8593,1.025520,-0.040080,-0.374455,-0.161945
8594,1.026292,-0.038189,-0.202340,-0.086989
8595,1.021679,-0.035761,-0.249317,-0.109202
8596,1.020443,-0.035076,-0.205437,-0.088031
8597,1.026076,-0.040094,-0.147272,-0.063407
8598,1.021547,-0.034567,-0.296397,-0.125903
8599,1.035635,-0.041621,-0.082849,-0.035267
8600,1.020351,-0.034808,-0.281045,-0.119653
8601,1.021393,-0.035288,-0.168071,-0.070914
8602,1.020562,-0.035067,-0.056329,-0.023356
8603,1.021190,-0.034734,-0.350599,-0.151241
8604,1.021329,-0.035100,-0.235221,-0.101557
8605,1.036070,-0.040958,-0.093066,-0.040224
8606,1.034475,-0.041664,-0.120517,-0.051001
8607,1.035792,-0.041793,-0.148652,-0.063729
8608,1.020795,-0.034450,-0.092291,-0.039743
8609,1.036064,-0.041377,-0.264202,-0.111397
8610,1.027232,-0.039062,-0.145653,-0.062747
8611,1.021141,-0.034612,-0.268796,-0.113579
8612,1.035901,-0.041466,-0.080385,-0.034207
8613,1.036121,-0.041712,-0.060994,-0.025401
8614,1.021207,-0.035306,-0.374995,-0.163300
8615,1.020346,-0.035513,-0.162290,-0.071666
8616,1.020897,-0.035550,-0.255373,-0.107558
8617,1.020712,-0.035657,-0.167768,-0.070829
8618,1.020188,-0.035861,-0.166663,-0.070142
8619,1.020992,-0.035426,-0.084328,-0.035940
8620,1.021451,-0.034969,-0.094865,-0.040943
8621,1.035883,-0.040121,-0.076358,-0.032224
8622,1.036043,-0.042103,-0.263036,-0.110948
8623,1.020405,-0.035135,-0.217684,-0.093520
8624,1.035230,-0.041260,-0.247517,-0.107552
8625,1.025328,-0.039561,-0.683928,-0.225242
8626,1.026570,-0.039574,-0.109577,-0.046082
8627,1.036294,-0.040413,-0.123577,-0.052520
8628,1.034444,-0.042173,-0.205469,-0.087525
8629,1.035553,-0.041523,-0.105002,-0.044088
8630,1.036792,-0.041964,-0.158503,-0.068596
8631,1.036510,-0.040565,-0.087500,-0.037398
8632,1.020388,-0.035765,-0.031189,-0.012621
8633,1.021569,-0.035184,-0.099304,-0.043028
8634,1.035680,-0.041556,-0.244667,-0.105899
8635,1.021080,-0.035332,-0.235000,-0.101857
8636,1.021832,-0.035648,-0.256194,-0.107715
8637,1.035621,-0.041878,-0.322923,-0.138438
8638,1.034980,-0.041899,-0.140681,-0.060394
8639,1.035029,-0.042182,-0.138964,-0.059690
8640,1.034260,-0.042174,-0.188525,-0.079887
8641,1.020592,-0.035149,-0.353947,-0.152493
8642,1.036282,-0.041040,-0.119478,-0.050622
8643,1.026038,-0.039939,-0.084614,-0.036123
8644,1.020698,-0.035168,-0.110034,-0.046264
8645,1.026234,-0.039031,-0.214996,-0.092486
8646,1.035164,-0.041749,-0.081783,-0.034821
8647,1.034575,-0.041696,-0.118459,-0.050278
8648,1.027288,-0.039035,-0.246974,-0.107665
8649,1.035805,-0.041959,-0.127217,-0.054105
8650,1.020024,-0.035566,-0.298629,-0.127202
8651,1.034568,-0.041685,-0.150173,-0.064967
8652,1.027573,-0.038660,-0.169825,-0.071748
8653,1.027611,-0.039039,-0.061159,-0.025553
8654,1.020732,-0.034158,-0.050832,-0.020968
8655,1.035144,-0.042667,-0.198271,-0.084823
8656,1.036041,-0.041604,-0.146057,-0.062995
8657,1.020890,-0.034873,-0.398778,-0.174998
8658,1.028054,-0.039972,-0.228431,-0.098447
8659,1.020853,-0.036010,-0.138033,-0.059364
8660,1.026884,-0.038967,-0.092641,-0.039955
8661,1.027783,-0.039283,-0.133331,-0.057085
8662,1.035486,-0.042227,-0.074435,-0.031500
8663,1.035188,-0.042287,-0.129154,-0.055164
8664,1.027058,-0.039592,-0.058979,-0.024552
8665,1.035798,-0.042154,-0.154455,-0.066868
8666,1.020223,-0.036614,-0.113879,-0.048026
8667,1.020117,-0.035691,-0.372453,-0.161309
8668,1.027279,-0.038992,-0.287724,-0.121878
8669,1.036257,-0.041182,-0.293839,-0.125741
8670,1.027448,-0.039706,-0.192786,-0.081947
8671,1.020841,-0.034891,-0.138473,-0.059648
8672,1.027010,-0.040644,-0.271112,-0.114940
8673,1.027312,-0.039620,-0.078771,-0.033556
8674,1.026954,-0.038881,-0.070262,-0.029645
8675,1.028308,-0.039380,-0.131331,-0.055917
8676,1.029118,-0.039490,-0.093960,-0.040560
8677,1.020888,-0.035261,-0.197501,-0.084139
8678,1.020426,-0.034640,-0.157285,-0.068317
8679,1.027760,-0.039636,-0.130790,-0.055719
8680,1.027511,-0.039376,-0.272052,-0.114155
8681,1.027194,-0.039291,-0.226784,-0.097716
8682,1.027957,-0.038744,-0.096196,-0.041575
8683,1.019419,-0.034935,-0.069516,-0.029257
8684,1.020626,-0.034646,-0.262384,-0.110741
8685,1.027885,-0.038742,-0.290876,-0.124072
8686,1.028774,-0.038933,-0.085480,-0.036515
8687,1.035597,-0.042069,-0.064494,-0.027040
8688,1.027602,-0.039212,-0.089772,-0.038517
8689,1.028896,-0.039850,-0.000005,-0.000064
8690,1.029220,-0.039693,-0.276582,-0.117922
8691,1.029432,-0.038993,-0.149512,-0.064518
8692,1.027979,-0.039232,-0.064369,-0.026882
8693,1.028384,-0.038900,-0.203511,-0.087291
8694,1.028758,-0.038959,-0.299875,-0.127891
8695,1.019171,-0.034568,-0.210349,-0.089893
8696,1.026044,-0.041119,-0.090596,-0.038871
8697,1.026408,-0.040505,-0.105414,-0.044182
8698,1.027783,-0.039057,-0.277684,-0.117502
8699,1.027861,-0.039111,-0.061319,-0.025667
8700,1.027814,-0.039171,-0.259928,-0.109416
8701,1.026603,-0.041224,-0.178664,-0.075252
8702,1.028164,-0.039611,-0.272549,-0.114735
8703,1.028449,-0.039083,-0.069548,-0.029276
8704,1.028811,-0.038847,-0.097063,-0.041956
8705,1.028504,-0.038965,-0.217276,-0.093908
8706,1.020101,-0.034564,-0.212357,-0.090815
8707,1.028353,-0.038476,-0.156312,-0.067750
8708,1.029474,-0.038483,-0.102783,-0.043051
8709,1.028268,-0.039976,-0.276961,-0.117103
8710,1.029359,-0.039482,-0.081694,-0.034847
8711,1.020343,-0.035226,-0.096258,-0.041589
8712,1.026429,-0.040093,-0.084343,-0.036013
8713,1.028303,-0.038987,-0.318689,-0.136146
8714,1.028289,-0.039631,-0.248836,-0.108286
8715,1.026898,-0.038084,-0.145554,-0.063168
8716,1.028509,-0.038719,-0.194629,-0.082736
8717,1.029507,-0.038492,-0.132941,-0.056921
8718,1.028350,-0.038975,-0.381338,-0.165501
8719,1.026667,-0.039322,-0.186193,-0.079057
8720,1.027188,-0.039152,-0.099602,-0.041756
8721,1.026003,-0.040706,-0.086425,-0.037144
8722,1.026093,-0.040927,-0.096581,-0.041731
8723,1.027810,-0.039184,-0.132723,-0.056664
8724,1.026671,-0.039330,-0.718256,-0.233076
8725,1.025949,-0.039297,-0.136444,-0.058422
8726,1.027113,-0.039610,-0.317520,-0.135559
8727,1.028260,-0.039357,-0.059484,-0.024705
8728,1.028498,-0.038360,-0.248239,-0.108300
8729,1.026351,-0.040359,-0.118985,-0.050405
8730,1.026870,-0.039199,-0.137827,-0.058955
8731,1.028444,-0.038864,-0.108377,-0.045697
8732,1.025865,-0.041155,-0.250731,-0.109125
8733,1.029005,-0.039107,-0.147176,-0.063685
8734,1.028036,-0.039011,-0.356969,-0.154799
8735,1.029368,-0.038288,-0.248593,-0.108187
8736,1.029628,-0.039163,-0.081735,-0.034691
8737,1.025304,-0.040539,-0.113454,-0.047816
8738,1.027595,-0.039931,-0.069970,-0.029494
8739,1.029376,-0.039026,-0.208437,-0.089250
8740,1.027961,-0.038366,-0.329851,-0.141503
8741,1.028282,-0.038885,-0.096390,-0.041731
8742,1.028484,-0.039892,-0.142460,-0.061461
8743,1.025229,-0.040730,-0.810674,-0.262925
8744,1.025233,-0.040890,-0.043615,-0.017781
8745,1.028740,-0.038158,-0.130744,-0.055896
8746,1.027456,-0.038797,-0.131656,-0.056077
8747,1.020958,-0.045280,-0.123603,-0.052388
8748,1.021316,-0.044929,-0.170182,-0.071609
8749,1.029488,-0.038844,-0.078511,-0.033173
8750,1.028069,-0.039216,-0.097205,-0.042211
8751,1.021168,-0.044182,-0.071094,-0.029876
8752,1.020638,-0.044994,-0.393444,-0.170144
8753,1.026994,-0.038498,-0.118605,-0.050398
8754,1.026662,-0.038181,-0.099862,-0.041714
8755,1.028573,-0.038359,-0.247198,-0.107338
8756,1.020811,-0.044676,-0.246725,-0.106300
8757,1.028826,-0.039288,-0.092754,-0.039916
8758,1.027539,-0.038768,-0.092918,-0.040071
8759,1.021065,-0.044435,-0.113441,-0.047734
8760,1.028261,-0.038926,-0.089591,-0.038528
8761,1.027903,-0.038017,-0.263471,-0.112147
8762,1.026500,-0.040801,-0.089074,-0.038080
8763,1.025810,-0.038404,-0.207000,-0.088641
8764,1.022346,-0.045459,-0.039999,-0.016337
8765,1.028538,-0.039041,-0.060618,-0.025296
8766,1.027579,-0.040361,-0.250190,-0.109129
8767,1.021438,-0.043917,-0.074653,-0.031561
8768,1.020960,-0.045377,-0.154096,-0.066464
8769,1.021183,-0.045253,-0.309919,-0.131349
8770,1.022094,-0.044597,-0.378396,-0.162371
8771,1.019639,-0.044441,-0.200186,-0.084945
8772,1.020335,-0.044873,-0.103349,-0.043289
8773,1.028483,-0.039368,-0.045231,-0.018572
8774,1.022109,-0.045011,-0.128175,-0.054589
8775,1.027505,-0.039361,-0.201077,-0.086166
8776,1.020942,-0.046034,-0.142301,-0.061030
8777,1.020708,-0.046116,-0.090698,-0.039008
8778,1.020799,-0.045021,-0.100852,-0.042112
8779,1.028430,-0.040270,-0.308823,-0.131988
8780,1.021358,-0.044176,-0.114902,-0.048494
8781,1.027200,-0.038633,-0.152621,-0.065961
8782,1.026616,-0.038479,-0.048438,-0.019847
8783,1.021049,-0.043285,-0.268037,-0.112564
8784,1.021745,-0.045599,-0.048499,-0.020030
8785,1.007120,-0.009626,-0.000081,-0.000049
8786,1.008114,-0.010253,-0.000020,-0.000011
8787,1.006962,-0.010510,0.000006,-0.000058
8788,1.007254,-0.010768,-0.000037,0.000018
